// -*- C++ -*-
// File generated by PyFoam - sorry for the ugliness

FoamFile
{
 version 2.0;
 format ascii;
 class dictionary;
 location "constant";
 object fastMarchingDict;
}

d 
{
	sourcePoint (0.0 0.2 0.5);
	maxDist 3.0;
};

